@<TRIPOS>MOLECULE
3CLZ-ligand
36   37    1
SMALL
USER_CHARGES


@<TRIPOS>ATOM
      1 N1         70.6376  -26.9642  -17.4666 N.pl3     1 UNK        -0.3471 
      2 C2         69.3923  -27.4005  -17.8787 C.ar      1 UNK         1.0861 
      3 N3         68.7825  -28.3790  -17.0790 N.2       1 UNK        -1.0963 
      4 C4         69.3003  -28.8031  -15.9847 C.ar      1 UNK         1.0518 
      5 C5         70.5514  -28.2919  -15.4731 C.ar      1 UNK        -0.3076 
      6 C6         71.1816  -28.7522  -14.1661 C.3       1 UNK        -0.3451 
      7 C7         71.1578  -27.3953  -16.2703 C.ar      1 UNK         0.0678 
      8 O8         68.8789  -26.9345  -18.8935 O.2       1 UNK        -0.8364 
      9 N9         68.6661  -29.7729  -15.3265 N.pl3     1 UNK        -1.0232 
     10 C10        71.4676  -26.1399  -18.3380 C.3       1 UNK         0.3390 
     11 C11        71.8075  -24.7485  -17.8311 C.3       1 UNK        -0.2236 
     12 C12        73.0434  -24.4653  -18.6671 C.3       1 UNK         0.3631 
     13 C13        73.7303  -25.8290  -18.8042 C.3       1 UNK         0.1637 
     14 O14        72.6909  -26.7762  -18.5742 O.3       1 UNK        -0.5425 
     15 O15        72.7279  -24.0392  -19.9902 O.3       1 UNK        -0.8296 
     16 C16        74.8695  -26.1076  -17.8084 C.3       1 UNK         0.0419 
     17 O17        74.3931  -26.0834  -16.4696 O.3       1 UNK        -0.5347 
     18 P18        75.2534  -27.0267  -15.3088 P.3       1 UNK         1.5882 
     19 O19        74.5782  -26.8763  -13.9643 O.co2     1 UNK        -0.9806 
     20 O20        75.5875  -28.3754  -15.9083 O.co2     1 UNK        -1.0336 
     21 H21        72.1533  -28.2860  -14.0006 H         1 UNK         0.1354 
     22 H22        70.5391  -28.4994  -13.3229 H         1 UNK         0.1250 
     23 H23        71.3264  -29.8328  -14.1746 H         1 UNK         0.1144 
     24 H24        72.1202  -26.9636  -16.0364 H         1 UNK         0.2138 
     25 H25        69.0161  -30.1178  -14.4409 H         1 UNK         0.4699 
     26 H26        67.8096  -30.1490  -15.7059 H         1 UNK         0.4656 
     27 H27        70.9915  -26.0633  -19.3174 H         1 UNK         0.1306 
     28 H28        72.0688  -24.7833  -16.7747 H         1 UNK         0.0585 
     29 H29        70.9690  -24.0679  -17.9721 H         1 UNK         0.1197 
     30 H30        73.7066  -23.7301  -18.2170 H         1 UNK         0.0488 
     31 H31        74.1246  -25.9609  -19.8138 H         1 UNK         0.0890 
     32 H32        75.6736  -25.3795  -17.9253 H         1 UNK         0.0604 
     33 H33        75.2955  -27.0812  -18.0519 H         1 UNK         0.1022 
     34 H34        73.5394  -23.8739  -20.4757 H         1 UNK         0.4873 
     35 O35        76.4965  -26.3771  -15.1642 O.3       1 UNK        -0.7444 
     36 H36        77.0339  -26.8520  -14.5261 H         1 UNK         0.5226 
@<TRIPOS>BOND
     1    1    7 ar   
     2    1    2 ar   
     3    1   10 1    
     4    2    8 2    
     5    2    3 ar   
     6    3    4 ar   
     7    4    9 1    
     8    4    5 ar   
     9    5    7 ar   
    10    5    6 1    
    11    6   22 1    
    12    6   23 1    
    13    6   21 1    
    14    7   24 1    
    15    9   26 1    
    16    9   25 1    
    17   10   27 1    
    18   10   14 1    
    19   10   11 1    
    20   11   28 1    
    21   11   29 1    
    22   11   12 1    
    23   12   30 1    
    24   12   15 1    
    25   12   13 1    
    26   13   31 1    
    27   13   14 1    
    28   13   16 1    
    29   15   34 1    
    30   16   33 1    
    31   16   32 1    
    32   16   17 1    
    33   17   18 1    
    34   18   35 1    
    35   18   19 2    
    36   18   20 1    
    37   35   36 1    
@<TRIPOS>SUBSTRUCTURE
     1 UNK         1 GROUP             0       ****    0 ROOT    
